tests/data/power_flow/dummy-test-i-n-optional/input.json
{
  "version": "1.0",
  "type": "input",
  "is_batch": false,
  "attributes": {},
  "data": {
    "node": [
      {
        "id": 1,
        "u_rated": 10000.0,
        "extra": "First Node"
      },
      {
        "id": 2,
        "u_rated": 10000.0,
        "extra": "Second Node"
      },
      {
        "id": 3,
        "u_rated": 10000.0,
        "extra": "Third Node"
      }
    ],
    "line": [
      {
        "id": 4,
        "from_node": 1,
        "to_node": 2,
        "from_status": 1,
        "to_status": 1,
        "r1": 10.0,
        "x1": 0.0,
        "c1": 0.0,
        "tan1": 0.0,
        "r0": 10.0,
        "x0": 0.0,
        "c0": 0.0,
        "tan0": 0.0
      }
    ],
    "link": [
      {
        "id": 5,
        "from_node": 2,
        "to_node": 3,
        "from_status": 1,
        "to_status": 1
      }
    ],
    "source": [
      {
        "id": 6,
        "node": 1,
        "status": 1,
        "u_ref": 1.05,
        "sk": 1000000000000.0
      },
      {
        "id": 10,
        "node": 3,
        "status": 0,
        "u_ref": 1.05,
        "sk": 1000000000000.0
      }
    ],
    "sym_load": [
      {
        "id": 7,
        "node": 3,
        "status": 1,
        "type": 1,
        "p_specified": 500000.0,
        "q_specified": 0.0
      }
    ],
    "asym_load": [
      {
        "id": 8,
        "node": 3,
        "status": 1,
        "type": 1,
        "p_specified": [
          166666.66666666666,
          166666.66666666666,
          166666.66666666666
        ],
        "q_specified": [
          0.0,
          0.0,
          0.0
        ]
      }
    ],
    "shunt": [
      {
        "id": 9,
        "node": 3,
        "status": 1,
        "g1": 0.015,
        "b1": 0.0,
        "g0": 0.015,
        "b0": 0.0
      }
    ]
  }
}
